<configuration>

 <input>
 <net-file value="test2.net.xml"/>
 <route-files value="test2.rou.xml"/>
 <additional-files value="test2.add.xml"/>
 </input>
 <report>
 <verbose value="true"/>
 <no-step-log value="true"/>
 </report>
<output>
        <tripinfo-output value="tripinfo-net_mingLiLu_2h_40-dynamic.xml"/>
        <statistic-output value="statistic-net_mingLiLu_2h_40-dynamic.xml"/>
</output>

</configuration>